LAMMPS (7 Jan 2022)
# GB setup adapted from lammps tutorial 3

# ---------- Initialize Simulation ---------------------
clear
units metal
dimension 3
boundary p p p
atom_style atomic

# ---------- Create Atomistic Structure ---------------------
lattice fcc 4.1115
Lattice spacing in x,y,z = 4.1115 4.1115 4.1115
region whole block -30 30 -60 30 0 1
create_box 2 whole
Created orthogonal box = (-123.345 -246.69 0) to (123.345 123.345 4.1115)
lattice fcc 4.1115 orient x  0  3  1 orient y  0 -1  3 orient z  1  0  0
Lattice spacing in x,y,z = 5.2006818 5.2006818 4.1115
create_atoms 1 region whole
Created 21566 atoms

region cyl cylinder z 0 0 5 0 1
region rec block -5 5 -60 0 0 1
region curve union 2 cyl rec
delete_atoms region curve
Deleted 3318 atoms, new total = 18248
lattice fcc 4.1115 orient x  0  3 -1 orient y  0  1  3 orient z  1  0  0
Lattice spacing in x,y,z = 5.2006818 5.2006818 4.1115
create_atoms 2 region curve
Created 3318 atoms
group large type 1
18248 atoms in group large
group small type 2
3318 atoms in group small

# ---------- Define Interatomic Potential ---------------------
pair_style eam/alloy
pair_coeff * * Al99.eam.alloy Al Al
neighbor 2.0 bin
neigh_modify delay 10 check yes

# pair_style lj/cut 5.613022
# pair_coeff * * 0.50722 2.57366
# mass * 26.982

# ---------- Displace atoms and delete overlapping atoms ---------------------
displace_atoms small move 0 0 0 units lattice
Displacing atoms ...
delete_atoms overlap 0.35 large small
System init for delete_atoms ...
  update every 1 steps, delay 10 steps, check yes
Deleted 8 atoms, new total = 21558

# ---------- Define Settings ---------------------
compute csym all centro/atom fcc
compute eng all pe/atom
compute eatoms all reduce sum c_eng

# ---------- Run Minimization ---------------------
reset_timestep 0
thermo 10
thermo_style custom step pe lx ly lz press pxx pyy pzz c_eatoms
dump 		1 all cfg 25 dump.initialize.*.cfg mass type xs ys zs c_csym c_eng fx fy fz
dump_modify     1 element Al Al
min_style cg
minimize 1e-15 1e-15 5000 5000
  update every 1 steps, delay 0 steps, check yes
Step PotEng Lx Ly Lz Press Pxx Pyy Pzz c_eatoms
0   -71693.321       246.69      370.035       4.1115   -32048.913   -29890.556   -32437.386   -33818.797   -71693.321
Averages over the last 52 of 104 rows, steps 520 to 1028:
PotEng Lx Ly Lz Press Pxx Pyy Pzz c_eatoms
-72106.4 246.69 370.035 4.1115 -31398.8 -29892.8 -31556.8 -32746.6 -72106.4
Loop time of 16.4884 on 8 procs for 1028 steps with 21558 atoms

Minimization stats:
  Stopping criterion = energy tolerance
  Energy initial, next-to-last, final =
  Force two-norm initial, final = 137.50879 7.4633995e-05
  Force max component initial, final = 27.118195 1.9520739e-05
  Final line search alpha, max atom move = 1 1.9520739e-05
  Iterations, force evaluations = 1028 1953

undump 1

# ---------- Run Minimization 2---------------------
# Now allow the box to expand/contract perpendicular to the grain boundary
reset_timestep 0
thermo 10
thermo_style custom step pe lx ly lz press pxx pyy pzz c_eatoms
fix 1 all box/relax y 0 vmax 0.001
min_style cg
minimize 1e-15 1e-15 5000 5000
Step PotEng Lx Ly Lz Press Pxx Pyy Pzz c_eatoms
0   -72106.394       246.69      370.035       4.1115   -31398.114   -29892.034    -31555.73   -32746.578   -72106.394
Averages over the last 127 of 254 rows, steps 1270 to 2523:
PotEng Lx Ly Lz Press Pxx Pyy Pzz c_eatoms
-72216.9 246.69 359.356 4.1115 -10115.5 -14116.2 -1.70374 -16228.4 -72216.9
Loop time of 43.3715 on 8 procs for 2523 steps with 21558 atoms

Minimization stats:
  Stopping criterion = max force evaluations
  Energy initial, next-to-last, final =
  Force two-norm initial, final = 7392.0094 1.4338794
  Force max component initial, final = 7392.0094 1.4279554
  Final line search alpha, max atom move = 0.066441098 0.094874923
  Iterations, force evaluations = 2523 5000

# ---------- Calculate GB Energy ---------------------
variable minimumenergy equal -3.360000
variable esum equal "v_minimumenergy * count(all)"
variable xseng equal "c_eatoms - (v_minimumenergy * count(all))"
variable gbarea equal "lx * lz * 2"
variable gbe equal "(c_eatoms - (v_minimumenergy * count(all)))/v_gbarea"
variable gbemJm2 equal 0.107413180657573*16021.7733
variable gbernd equal round(1720.94962992758)
GB energy is 1720.94962992758 mJ/m^2

# ---------- Dump data into Data file -------------
reset_timestep 0
dump 		1 all cfg 10000 dump.setup.*.cfg mass type xs ys zs c_csym c_eng fx fy fz
dump_modify     1 element Al Al
minimize 1e-15 1e-15 5000 5000
Step PotEng Lx Ly Lz Press Pxx Pyy Pzz c_eatoms
0   -72216.989       246.69    359.35167       4.1115   -10109.404   -14091.359    -6.095795   -16230.758   -72216.989
Averages over the last 58 of 115 rows, steps 570 to 1133:
PotEng Lx Ly Lz Press Pxx Pyy Pzz c_eatoms
-72217 246.69 359.347 4.1115 -10101.5 -14080.1 -0.256037 -16224 -72217
Loop time of 19.5114 on 8 procs for 1133 steps with 21558 atoms

Minimization stats:
  Stopping criterion = energy tolerance
  Energy initial, next-to-last, final =
  Force two-norm initial, final = 1.3928281 0.011349028
  Force max component initial, final = 1.3867287 0.0055247812
  Final line search alpha, max atom move = 0.056547877 0.00031241465
  Iterations, force evaluations = 1133 2265

undump 1

# ----------Setup Fixed and Thermostat Regions--------------------
change_box all boundary p s p
Changing box ...
region edge block -123.345 123.345 -246.69 -234.3555 0 4.1115 side in units box
group frozen region edge
415 atoms in group frozen
region bulk block -123.345 123.345 -246.69 -234.3555 0 4.1115 side out units box
group tstat region bulk
21143 atoms in group tstat
fix 2 frozen setforce 0.0 0.0 0.0
velocity all create 1800 12345 mom yes rot no
fix 3 tstat nvt temp 900 900 0.1

# ---------- Run Minimization ---------------------
reset_timestep 0
timestep 0.001
thermo 5000
thermo_style custom step time atoms temp pe ke etotal density
dump 1 all cfg 50000 dump.motion.*.cfg mass type xs ys zs
dump_modify     1 element Al Al
run 3000000
Step Time Atoms Temp PotEng KinEng TotEng Density
0            0    21558         1800   -72109.339    5015.6297   -67093.709     2.651333
Averages over the last 301 of 601 rows, steps 1500000 to 3000000:
Atoms Temp PotEng KinEng TotEng Density
21558 918.466 -69651.6 2559.27 -67092.4 2.56971
Loop time of 25381.5 on 8 procs for 3000000 steps with 21558 atoms

print "All done"
All done
