# ---------- Initialize Simulation ---------------------
units metal
dimension 3
boundary p p p
atom_style atomic
atom_modify map array

# ---------- Create Atoms ---------------------
lattice 	fcc 6.12
Lattice spacing in x,y,z = 6.12 6.12 6.12
region	box block 0 6 0 6 0 6 units lattice
create_box	1 box
Created orthogonal box = (0 0 0) to (36.72 36.72 36.72)
create_atoms 1 box
Created 864 atoms

# ---------- Define Interatomic Potential ---------------------
pair_style lj/cut 10
pair_coeff * * 0.01834428 4.1
mass 1 131.293

# ---------- Run Initialize Temp ---------------------
variable tstart equal "2*v_temp"
velocity all create 280 12345 mom yes rot no

# ---------- Neighbor lists ---------------------
neighbor 2.0 bin
neigh_modify delay 10 check yes

# ---------- Run Equilibration ---------------------
reset_timestep 0
timestep 0.001
fix 1 all npt temp 140 140 0.1 iso 0.0 0.0 1
thermo 50
run 1000
  generated 0 of 0 mixed pair_coeff terms from geometric mixing rule
  update every 1 steps, delay 10 steps, check yes
Step Temp E_pair E_mol TotEng Press Volume
0          280   -120.23839            0   -89.003967    5910.1987     49511.72
Averages over the last 11 of 21 rows, steps 500 to 1000:
Temp E_pair E_mol TotEng Press Volume
132.784 -103.548 0 -88.7356 109.907 64021.6
Loop time of 0.170606 on 6 procs for 1000 steps with 864 atoms

# ---------- Run Sampling ---------------------
compute myMSD all msd com yes
compute myVACF all vacf
compute myRDF all rdf 50
fix 2 all ave/time 100 1 100 c_myRDF[*] file rdf.140.out mode vector
thermo_style custom step temp epair etotal press c_myMSD[4] c_myVACF[4]
print "StartSampling"
StartSampling
run 1000
  generated 0 of 0 mixed pair_coeff terms from geometric mixing rule
  update every 1 steps, delay 10 steps, check yes
Step Temp E_pair TotEng Press c_myMSD[4] c_myVACF[4]
1000    140.80008    -99.45134   -83.744879     37.77638 1.4608535e-32     2.671864
Averages over the last 11 of 21 rows, steps 1500 to 2000:
Temp E_pair TotEng Press c_myMSD[4] c_myVACF[4]
139.321 -97.4543 -81.9128 5.6536 0.720595 -0.672439
Loop time of 0.160961 on 6 procs for 1000 steps with 864 atoms

print "EndSampling"
EndSampling
#output a single snapshot at the end of the simulation
dump 1 all cfg 1 dump.140.*.cfg mass type xs ys zs
run 0
  generated 0 of 0 mixed pair_coeff terms from geometric mixing rule
Step Temp E_pair TotEng Press c_myMSD[4] c_myVACF[4]
2000    135.44092   -97.296281   -82.187642    11.841327   0.92103218  -0.58322835
Loop time of 1.82117e-06 on 6 procs for 0 steps with 864 atoms

# ---------- Write restart ---------------------
unfix 1
unfix 2
uncompute myMSD
uncompute myVACF
uncompute myRDF
undump 1
thermo_style one
write_restart restartfile.140
System init for write_restart ...
  generated 0 of 0 mixed pair_coeff terms from geometric mixing rule
  update every 1 steps, delay 10 steps, check yes

print "All done!"
All done!
