LAMMPS (7 Jan 2022)
# LAMMPS Input File for Grain Boundaries
# Mark Tschopp, Dec2009
# This file will generate a single Sigma5(310) STGB

# ---------- Initialize Simulation ---------------------
clear
units metal
dimension 3
boundary p p p
atom_style atomic

# ---------- Create Atomistic Structure ---------------------
lattice fcc 4.05
Lattice spacing in x,y,z = 4.05 4.05 4.05
region whole block 0.000000 12.807225 -64.0361225 64.0361225 0.000000 4.050000 units box
create_box 2 whole
Created orthogonal box = (0 -64.036123 0) to (12.807225 64.036123 4.05)
region upper block INF INF 0.000000 64.0361225 INF INF units box
lattice fcc 4.05 orient x  0  3  1 orient y  0 -1  3 orient z  1  0  0
Lattice spacing in x,y,z = 5.1228898 5.1228898 4.05
create_atoms 1 region upper
Created 200 atoms
region lower block INF INF -64.0361225 0.000000 INF INF units box
lattice fcc 4.05 orient x  0  3 -1 orient y  0  1  3 orient z  1  0  0
Lattice spacing in x,y,z = 5.1228898 5.1228898 4.05
create_atoms 2 region lower
Created 200 atoms
group upper type 1
200 atoms in group upper
group lower type 2
200 atoms in group lower

# ---------- Define Interatomic Potential ---------------------
pair_style eam/alloy
pair_coeff * * Al99.eam.alloy Al Al
neighbor 2.0 bin
neigh_modify delay 10 check yes

# ---------- Displace atoms and delete overlapping atoms ---------------------
displace_atoms upper move 0 0 0 units lattice
Displacing atoms ...
delete_atoms overlap 0.35 lower upper
System init for delete_atoms ...
  update every 1 steps, delay 10 steps, check yes
Deleted 2 atoms, new total = 398

# ---------- Define Settings ---------------------
compute csym all centro/atom fcc
compute eng all pe/atom
compute eatoms all reduce sum c_eng

# ---------- Run Minimization ---------------------
reset_timestep 0
thermo 10
thermo_style custom step pe lx ly lz press pxx pyy pzz c_eatoms
dump 		1 all cfg 25 dump.sig5_minimization_*.cfg mass type xs ys zs c_csym c_eng fx fy fz
dump_modify     1 element Al Al
min_style cg
minimize 1e-15 1e-15 5000 5000
  update every 1 steps, delay 0 steps, check yes
Step PotEng Lx Ly Lz Press Pxx Pyy Pzz c_eatoms
0   -1318.9843    12.807225    128.07225         4.05    875.32429   -2675.7752    7333.2608   -2031.5128   -1318.9843
Loop time of 0.317388 on 4 procs for 446 steps with 398 atoms

Minimization stats:
  Stopping criterion = energy tolerance
  Energy initial, next-to-last, final =
  Force two-norm initial, final = 17.588578 5.6867771e-06
  Force max component initial, final = 6.2503571 1.398681e-06
  Final line search alpha, max atom move = 1 1.398681e-06
  Iterations, force evaluations = 446 865

undump 1

# ---------- Run Minimization 2---------------------
# Now allow the box to expand/contract perpendicular to the grain boundary
reset_timestep 0
thermo 10
thermo_style custom step pe lx ly lz press pxx pyy pzz c_eatoms
fix 1 all box/relax y 0 vmax 0.001
min_style cg
minimize 1e-15 1e-15 5000 5000
Step PotEng Lx Ly Lz Press Pxx Pyy Pzz c_eatoms
0   -1333.5631    12.807225    128.07225         4.05     178.1418    5.2635499    1502.6827   -973.52085   -1333.5631
Averages over the last 69 of 137 rows, steps 680 to 1357:
PotEng Lx Ly Lz Press Pxx Pyy Pzz c_eatoms
-1333.57 12.8072 128.241 4.05 -854.441 -772.873 0.0492266 -1790.5 -1333.57
Loop time of 0.983264 on 4 procs for 1357 steps with 398 atoms

Minimization stats:
  Stopping criterion = energy tolerance
  Energy initial, next-to-last, final =
  Force two-norm initial, final = 6.2304872 7.2801627e-05
  Force max component initial, final = 6.2304872 3.8604369e-05
  Final line search alpha, max atom move = 1 3.8604369e-05
  Iterations, force evaluations = 1357 2713

# ---------- Calculate GB Energy ---------------------
variable minimumenergy equal -3.360000
variable esum equal "v_minimumenergy * count(all)"
variable xseng equal "c_eatoms - (v_minimumenergy * count(all))"
variable gbarea equal "lx * lz * 2"
variable gbe equal "(c_eatoms - (v_minimumenergy * count(all)))/v_gbarea"
variable gbemJm2 equal 0.0357903107080291*16021.7733
variable gbernd equal round(573.424244500605)
GB energy is 573.424244500605 mJ/m^2

# ---------- Dump data into Data file -------------
reset_timestep 0
dump 		1 all cfg 10000 dump.al_sig5_310_*.cfg mass type xs ys zs c_csym c_eng fx fy fz
dump_modify     1 element Al Al
minimize 1e-15 1e-15 5000 5000
Step PotEng Lx Ly Lz Press Pxx Pyy Pzz c_eatoms
0   -1333.5672    12.807225    128.24074         4.05   -854.62985   -773.23778 -0.0093106871   -1790.6425   -1333.5672
Loop time of 0.00956853 on 4 procs for 10 steps with 398 atoms

Minimization stats:
  Stopping criterion = energy tolerance
  Energy initial, next-to-last, final =
  Force two-norm initial, final = 7.2828571e-05 5.0811432e-05
  Force max component initial, final = 3.8655157e-05 1.8214368e-05
  Final line search alpha, max atom move = 1 1.8214368e-05
  Iterations, force evaluations = 10 20

undump 1

write_restart restart.al_sig5_310_stgb
System init for write_restart ...

print "All done"
All done
