LAMMPS (7 Jan 2022)
# GB setup adapted from lammps tutorial 3

# ---------- Initialize Simulation ---------------------
clear
units metal
dimension 3
boundary p p p
atom_style atomic

# ---------- Create Atomistic Structure ---------------------
lattice fcc 4.0982
Lattice spacing in x,y,z = 4.0982 4.0982 4.0982
region whole block -30 30 -30 30 0 1
create_box 2 whole
Created orthogonal box = (-122.946 -122.946 0) to (122.946 122.946 4.0982)
lattice fcc 4.0982 orient x  0  3  1 orient y  0 -1  3 orient z  1  0  0
Lattice spacing in x,y,z = 5.1838585 5.1838585 4.0982
create_atoms 1 region whole
Created 14365 atoms

region cyl cylinder z 0 0 5 0 1
region rec block -5 5 -30 0 0 1
region curve union 2 cyl rec
delete_atoms region curve
Deleted 1781 atoms, new total = 12584
lattice fcc 4.0982 orient x  0  3 -1 orient y  0  1  3 orient z  1  0  0
Lattice spacing in x,y,z = 5.1838585 5.1838585 4.0982
create_atoms 2 region curve
Created 1781 atoms
group large type 1
12584 atoms in group large
group small type 2
1781 atoms in group small

# ---------- Define Interatomic Potential ---------------------
pair_style eam/alloy
pair_coeff * * Al99.eam.alloy Al Al
neighbor 2.0 bin
neigh_modify delay 10 check yes

# ---------- Displace atoms and delete overlapping atoms ---------------------
displace_atoms small move 0 0 0 units lattice
Displacing atoms ...
delete_atoms overlap 0.35 large small
System init for delete_atoms ...
  update every 1 steps, delay 10 steps, check yes
Deleted 4 atoms, new total = 14361

# ---------- Define Settings ---------------------
compute csym all centro/atom fcc
compute eng all pe/atom
compute eatoms all reduce sum c_eng

# ---------- Run Minimization ---------------------
reset_timestep 0
thermo 10
thermo_style custom step pe lx ly lz press pxx pyy pzz c_eatoms
dump 		1 all cfg 25 dump.initialize.*.cfg mass type xs ys zs c_csym c_eng fx fy fz
dump_modify     1 element Al Al
min_style cg
minimize 1e-15 1e-15 5000 5000
  update every 1 steps, delay 0 steps, check yes
Step PotEng Lx Ly Lz Press Pxx Pyy Pzz c_eatoms
0   -47833.206      245.892      245.892       4.0982   -25350.707   -23709.868   -25327.069   -27015.183   -47833.206
Loop time of 9.04498 on 8 procs for 868 steps with 14361 atoms

Minimization stats:
  Stopping criterion = energy tolerance
  Energy initial, next-to-last, final =
  Force two-norm initial, final = 93.595214 5.3166882e-05
  Force max component initial, final = 17.244999 1.1203114e-05
  Final line search alpha, max atom move = 1 1.1203114e-05
  Iterations, force evaluations = 868 1642

undump 1

# ---------- Run Minimization 2---------------------
# Now allow the box to expand/contract perpendicular to the grain boundary
reset_timestep 0
thermo 10
thermo_style custom step pe lx ly lz press pxx pyy pzz c_eatoms
fix 1 all box/relax y 0 vmax 0.001
min_style cg
minimize 1e-15 1e-15 5000 5000
Step PotEng Lx Ly Lz Press Pxx Pyy Pzz c_eatoms
0   -48076.002      245.892      245.892       4.0982   -25035.341   -23937.801   -24953.031    -26215.19   -48076.002
Averages over the last 127 of 253 rows, steps 1260 to 2516:
PotEng Lx Ly Lz Press Pxx Pyy Pzz c_eatoms
-48121.8 245.892 240.287 4.0982 -8081.14 -11231.8 -2.23256 -13009.3 -48121.8
Loop time of 26.6494 on 8 procs for 2516 steps with 14361 atoms

Minimization stats:
  Stopping criterion = max force evaluations
  Energy initial, next-to-last, final =
  Force two-norm initial, final = 3859.1788 0.016046582
  Force max component initial, final = 3859.1788 0.0047220294
  Final line search alpha, max atom move = 0.02021492 9.5455444e-05
  Iterations, force evaluations = 2516 5000

# ---------- Calculate GB Energy ---------------------
variable minimumenergy equal -3.360000
variable esum equal "v_minimumenergy * count(all)"
variable xseng equal "c_eatoms - (v_minimumenergy * count(all))"
variable gbarea equal "lx * lz * 2"
variable gbe equal "(c_eatoms - (v_minimumenergy * count(all)))/v_gbarea"
variable gbemJm2 equal 0.064956414799176*16021.7733
variable gbernd equal round(1040.71695229316)
GB energy is 1040.71695229316 mJ/m^2

# ---------- Dump data into Data file -------------
reset_timestep 0
dump 		1 all cfg 10000 dump.setup.*.cfg mass type xs ys zs c_csym c_eng fx fy fz
dump_modify     1 element Al Al
minimize 1e-15 1e-15 5000 5000
Step PotEng Lx Ly Lz Press Pxx Pyy Pzz c_eatoms
0   -48122.045      245.892    240.28263       4.0982   -8075.1085   -11216.292  -0.02097395   -13009.012   -48122.045
Loop time of 2.38339 on 8 procs for 220 steps with 14361 atoms

Minimization stats:
  Stopping criterion = energy tolerance
  Energy initial, next-to-last, final =
  Force two-norm initial, final = 0.016031788 0.0076177352
  Force max component initial, final = 0.0047220294 0.0050140318
  Final line search alpha, max atom move = 0.26107897 0.0013090583
  Iterations, force evaluations = 220 440

undump 1

# ----------Setup Fixed and Thermostat Regions--------------------
change_box all boundary p s p
Changing box ...
region edge block -122.946 122.946 -122.946 -110.6514 0 4.0982 side in units box
group frozen region edge
562 atoms in group frozen
region bulk block -122.946 122.946 -122.946 -110.6514 0 4.0982 side out units box
group tstat region bulk
13799 atoms in group tstat
fix 2 frozen setforce 0.0 0.0 0.0
velocity all create 1500 12345 mom yes rot no
fix 3 tstat nvt temp 750 750 0.1

# ---------- Run Minimization ---------------------
reset_timestep 0
timestep 0.001
thermo 5000
thermo_style custom step time atoms temp pe ke etotal density
dump 1 all cfg 50000 dump.motion.*.cfg mass type xs ys zs
dump_modify     1 element Al Al
run 3000000
Step Time Atoms Temp PotEng KinEng TotEng Density
0            0    14361         1500   -48015.209    2784.2635   -45230.945    2.6592611
Averages over the last 301 of 601 rows, steps 1500000 to 3000000:
Atoms Temp PotEng KinEng TotEng Density
14361 779.149 -46693.3 1446.24 -45247.1 2.59275
Loop time of 16592.5 on 8 procs for 3000000 steps with 14361 atoms

print "All done"
All done
